@<TRIPOS>MOLECULE
    IX6
   73    77     0     0     0
SMALL
USER_CHARGES


@<TRIPOS>ATOM
      1 C1         39.3206    3.8318  -19.1589 ca         1 IX6     -0.195000
      2 C2         38.9839    3.7770  -17.8014 ca         1 IX6     -0.097000
      3 C3         37.9622    2.9221  -17.3706 ca         1 IX6     -0.132000
      4 C4         37.2721    2.1057  -18.2889 ca         1 IX6      0.094600
      5 C5         37.5903    2.1752  -19.6711 zf         1 IX6      0.114600
      6 C6         38.6321    3.0379  -20.0892 zg         1 IX6      0.098100
      7 C8         34.8956    1.5614  -18.4503 zc         1 IX6      0.237200
      8 C15        35.6590   -0.2311  -21.9320 c3         1 IX6     -0.086200
      9 C16        34.5630    3.6779  -19.9034 ca         1 IX6     -0.031000
     10 C17        34.6213    3.0687  -18.6303 zj         1 IX6     -0.182300
     11 C18        34.3434    5.0585  -20.0303 ca         1 IX6     -0.214000
     12 C19        34.1700    5.8574  -18.8838 zh         1 IX6      0.159100
     13 C21        34.4443    3.8830  -17.4914 zi         1 IX6      0.176900
     14 C24        33.5502    0.8116  -22.9547 c3         1 IX6     -0.097100
     15 C27        31.2615    7.2978  -19.9610 zb         1 IX6     -0.179000
     16 O29        38.9852    3.1084  -21.4120 zt         1 IX6     -0.516100
     17 C32        36.2611    0.5221  -16.6331 zn         1 IX6      0.621600
     18 C34        37.6043    0.0608  -16.1681 zl         1 IX6      0.168500
     19 C35        38.7190   -0.2875  -16.8934 zm         1 IX6      0.250700
     20 C37        39.1669   -0.6417  -14.8975 cd         1 IX6      0.485700
     21 C39        39.9615   -1.0803  -13.6995 c3         1 IX6     -0.123400
     22 C40        38.7923   -0.5482  -18.3765 c3         1 IX6     -0.148400
     23 F41        34.4997    3.3455  -16.2542 zo         1 IX6     -0.133900
     24 C20        34.2233    5.2618  -17.6169 zk         1 IX6     -0.210000
     25 O23        33.9615    7.2217  -18.9538 zu         1 IX6     -0.325900
     26 C22        33.6860    7.9424  -20.1749 zd         1 IX6      0.166600
     27 C26        32.3293    7.5306  -20.7345 za         1 IX6     -0.174400
     28 C28        32.2717    7.4405  -22.2491 ze         1 IX6     -0.057900
     29 N7         36.2064    1.2872  -17.8143 zr         1 IX6     -0.378000
     30 N38        37.9090   -0.2211  -14.8549 nc         1 IX6     -0.643000
     31 O36        39.7501   -0.7109  -16.1304 os         1 IX6     -0.386800
     32 O33        35.2622    0.2780  -15.9774 zs         1 IX6     -0.578100
     33 C9         34.8098    0.7315  -19.7280 ce         1 IX6     -0.577300
     34 S12        33.2507   -0.1544  -19.8277 sy         1 IX6      1.406900
     35 O30        32.1952    0.8394  -20.0467 zs         1 IX6     -0.660800
     36 O31        33.1737   -1.0665  -18.6832 zs         1 IX6     -0.660800
     37 C13        33.3802   -1.1703  -21.3188 c3         1 IX6     -0.310600
     38 C14        34.2135   -0.5018  -22.4458 c3         1 IX6     -0.003000
     39 C25        34.2883   -1.4961  -23.6380 c3         1 IX6     -0.097100
     40 C10        35.7689    0.6469  -20.6881 c2         1 IX6      0.337800
     41 N11        36.9649    1.3745  -20.6383 nu         1 IX6     -0.603400
     42 H1         40.1157    4.4939  -19.4895 ha         1 IX6      0.137000
     43 H2         39.5105    4.3999  -17.0838 ha         1 IX6      0.140000
     44 H3         37.6955    2.9047  -16.3172 ha         1 IX6      0.151000
     45 H4         34.1004    1.2046  -17.7846 h1         1 IX6      0.128700
     46 H5         36.2399    0.2154  -22.7506 hc         1 IX6      0.072200
     47 H6         36.1465   -1.1907  -21.7151 hc         1 IX6      0.072200
     48 H7         34.6987    3.0978  -20.8083 ha         1 IX6      0.150000
     49 H8         34.3213    5.4929  -21.0231 ha         1 IX6      0.147000
     50 H9         32.5069    0.6349  -23.2463 hc         1 IX6      0.045867
     51 H10        34.0820    1.2029  -23.8314 hc         1 IX6      0.045867
     52 H11        33.5557    1.5991  -22.1936 hc         1 IX6      0.045867
     53 H12        30.3003    7.0167  -20.3867 zp         1 IX6      0.123500
     54 H13        31.3178    7.3822  -18.8771 zp         1 IX6      0.123500
     55 H14        39.7131    3.7466  -21.5119 zq         1 IX6      0.429000
     56 H15        39.5227   -0.6988  -12.7692 hc         1 IX6      0.069700
     57 H16        40.9937   -0.7144  -13.7608 hc         1 IX6      0.069700
     58 H17        39.9943   -2.1747  -13.6358 hc         1 IX6      0.069700
     59 H18        39.3415   -1.4774  -18.5724 hc         1 IX6      0.077367
     60 H19        39.3287    0.2559  -18.8930 hc         1 IX6      0.077367
     61 H20        37.7989   -0.6660  -18.8242 hc         1 IX6      0.077367
     62 H21        34.0935    5.8724  -16.7287 ha         1 IX6      0.162000
     63 H22        34.4854    7.7676  -20.9063 h1         1 IX6      0.062200
     64 H23        33.6685    9.0185  -19.9600 h1         1 IX6      0.062200
     65 H24        31.2665    7.1772  -22.6018 hc         1 IX6      0.041700
     66 H25        32.9692    6.6825  -22.6261 hc         1 IX6      0.041700
     67 H26        32.5477    8.3991  -22.7062 hc         1 IX6      0.041700
     68 H27        32.3639   -1.3978  -21.6639 h1         1 IX6      0.115200
     69 H28        33.8620   -2.1110  -21.0234 h1         1 IX6      0.115200
     70 H29        34.8926   -1.0863  -24.4577 hc         1 IX6      0.045867
     71 H30        33.2873   -1.7119  -24.0339 hc         1 IX6      0.045867
     72 H31        34.7402   -2.4486  -23.3317 hc         1 IX6      0.045867
     73 H32        37.4506    1.3990  -21.5275 hn         1 IX6      0.451800
@<TRIPOS>BOND
     1    1    2 ar
     2    1    6 ar
     3    1   42 1
     4    2    3 ar
     5    2   43 1
     6    3    4 ar
     7    3   44 1
     8    4    5 ar
     9    4   29 1
    10    5    6 ar
    11    5   41 1
    12    6   16 1
    13    7   10 1
    14    7   29 1
    15    7   33 1
    16    7   45 1
    17    8   38 1
    18    8   40 1
    19    8   46 1
    20    8   47 1
    21    9   10 ar
    22    9   11 ar
    23    9   48 1
    24   10   13 ar
    25   11   12 ar
    26   11   49 1
    27   12   24 ar
    28   12   25 1
    29   13   23 1
    30   13   24 ar
    31   14   38 1
    32   14   50 1
    33   14   51 1
    34   14   52 1
    35   15   27 2
    36   15   53 1
    37   15   54 1
    38   16   55 1
    39   17   18 1
    40   17   29 am
    41   17   32 2
    42   18   19 2
    43   18   30 1
    44   19   22 1
    45   19   31 1
    46   20   21 1
    47   20   30 2
    48   20   31 1
    49   21   56 1
    50   21   57 1
    51   21   58 1
    52   22   59 1
    53   22   60 1
    54   22   61 1
    55   24   62 1
    56   25   26 1
    57   26   27 1
    58   26   63 1
    59   26   64 1
    60   27   28 1
    61   28   65 1
    62   28   66 1
    63   28   67 1
    64   33   34 1
    65   33   40 2
    66   34   35 2
    67   34   36 2
    68   34   37 1
    69   37   38 1
    70   37   68 1
    71   37   69 1
    72   38   39 1
    73   39   70 1
    74   39   71 1
    75   39   72 1
    76   40   41 1
    77   41   73 1
