@<TRIPOS>MOLECULE
    K13
   78    81     0     0     0
SMALL
USER_CHARGES


@<TRIPOS>ATOM
      1 N1         15.4169   36.7349   16.1439 zv         1 K13     -0.852200
      2 C2         15.9546   35.4950   15.8342 zl         1 K13      0.241600
      3 C3         16.8300   35.3560   14.7435 zk         1 K13     -0.238000
      4 C4         17.3770   34.1014   14.4289 zm         1 K13      0.032500
      5 C5         17.0507   32.9751   15.2059 zn         1 K13     -0.456500
      6 C6         16.1746   33.1128   16.2976 zm         1 K13      0.032500
      7 C7         15.6291   34.3686   16.6093 zk         1 K13     -0.238000
      8 S8         17.7711   31.3635   14.8259 zz         1 K13      1.517200
      9 O9         16.7026   30.3981   15.0999 zw         1 K13     -0.662800
     10 O10        18.4640   31.4095   13.5351 zw         1 K13     -0.662800
     11 N11        18.9640   31.1467   16.0398 zt         1 K13     -0.799500
     12 C12        19.5186   32.3305   16.7481 zc         1 K13      0.229800
     13 C13        21.0566   32.2555   16.9729 zd         1 K13     -0.077700
     14 C14        21.8211   32.3038   15.6224 c3         1 K13     -0.107100
     15 C15        21.5460   33.3625   17.9537 ze         1 K13     -0.076400
     16 C16        19.0741   29.8413   16.7491 za         1 K13      0.231800
     17 C17        20.1388   28.8924   16.1302 zb         1 K13      0.112100
     18 C18        21.2813   34.8162   17.4874 zg         1 K13     -0.095100
     19 O18        20.3893   27.8154   17.0344 zx         1 K13     -0.605800
     20 C19        19.7737   28.3382   14.7204 zf         1 K13      0.050700
     21 N20        20.9180   27.6346   14.1211 zu         1 K13     -0.513900
     22 C21        21.8463   28.2387   13.3097 zq         1 K13      0.724100
     23 O22        21.8915   29.4321   13.0650 zw         1 K13     -0.578000
     24 O23        22.5615   27.2714   12.6733 zy         1 K13     -0.438900
     25 C24        23.3659   27.6233   11.5266 zi         1 K13      0.131100
     26 C25        24.1515   26.3978   11.0515 c3         1 K13      0.120400
     27 O26        24.3822   26.6611    9.6566 os         1 K13     -0.420600
     28 C27        23.2872   27.4182    9.0973 c3         1 K13      0.320900
     29 O28        22.3764   26.5200    8.4310 os         1 K13     -0.420600
     30 C29        21.3076   26.1439    9.3127 c3         1 K13      0.124400
     31 C30        21.1040   27.3836   10.1863 c3         1 K13     -0.102400
     32 C31        22.5114   28.0230   10.2930 zj         1 K13     -0.129700
     33 C32        18.5242   27.4160   14.6928 zh         1 K13     -0.039100
     34 C33        18.5041   25.6394   12.8665 zp         1 K13     -0.128000
     35 C34        18.2541   25.2317   11.5462 ca         1 K13     -0.131000
     36 C35        17.7105   26.1371   10.6218 ca         1 K13     -0.129000
     37 C36        17.4168   27.4509   11.0188 ca         1 K13     -0.131000
     38 C37        17.6664   27.8591   12.3390 zp         1 K13     -0.128000
     39 C38        18.2116   26.9560   13.2710 zo         1 K13     -0.106300
     40 H1         15.6439   37.5421   15.5772 zr         1 K13      0.422300
     41 H2         14.7772   36.8309   16.9223 zr         1 K13      0.422300
     42 H3         17.0880   36.2213   14.1392 ha         1 K13      0.139500
     43 H4         18.0561   34.0088   13.5863 ha         1 K13      0.148000
     44 H5         15.9207   32.2498   16.9066 ha         1 K13      0.148000
     45 H6         14.9539   34.4664   17.4549 ha         1 K13      0.139500
     46 H7         19.0089   32.4472   17.7131 h1         1 K13      0.045700
     47 H8         19.3292   33.2382   16.1653 h1         1 K13      0.045700
     48 H9         21.2955   31.2994   17.4541 hc         1 K13      0.051700
     49 H10        22.9057   32.2792   15.7865 hc         1 K13      0.049367
     50 H11        21.5797   33.2130   15.0581 hc         1 K13      0.049367
     51 H12        21.5598   31.4471   14.9903 hc         1 K13      0.049367
     52 H13        22.6228   33.2375   18.1263 hc         1 K13      0.039200
     53 H14        21.0631   33.2128   18.9282 hc         1 K13      0.039200
     54 H15        18.1028   29.3365   16.7915 h1         1 K13      0.061700
     55 H16        19.3594   30.0237   17.7930 h1         1 K13      0.061700
     56 H17        21.0646   29.4691   16.0197 h1         1 K13      0.079700
     57 H18        21.6636   35.5255   18.2322 hc         1 K13      0.034033
     58 H19        20.2084   35.0092   17.3650 hc         1 K13      0.034033
     59 H20        21.7848   35.0303   16.5368 hc         1 K13      0.034033
     60 H21        21.0641   27.2473   16.6217 zs         1 K13      0.413000
     61 H22        19.5506   29.1975   14.0789 h1         1 K13      0.098700
     62 H23        20.9506   26.6252   14.1762 hn         1 K13      0.319500
     63 H24        24.0728   28.4270   11.7716 h1         1 K13      0.091700
     64 H25        23.5470   25.4899   11.1713 h1         1 K13      0.063200
     65 H26        25.0960   26.2871   11.5981 h1         1 K13      0.063200
     66 H27        23.6597   28.1784    8.3997 h2         1 K13      0.100700
     67 H28        21.6130   25.2915    9.9327 h1         1 K13      0.050700
     68 H29        20.3984   25.8848    8.7557 h1         1 K13      0.050700
     69 H30        20.6473   27.1220   11.1466 hc         1 K13      0.065700
     70 H31        20.4228   28.0777    9.6779 hc         1 K13      0.065700
     71 H32        22.4479   29.1151   10.2088 hc         1 K13      0.088700
     72 H33        17.6541   27.9409   15.1013 hc         1 K13      0.065700
     73 H34        18.6897   26.5476   15.3431 hc         1 K13      0.065700
     74 H35        18.9340   24.9338   13.5718 ha         1 K13      0.149500
     75 H36        18.4849   24.2156   11.2395 ha         1 K13      0.133000
     76 H37        17.5187   25.8221    9.6000 ha         1 K13      0.131000
     77 H38        16.9983   28.1536   10.3038 ha         1 K13      0.133000
     78 H39        17.4415   28.8796   12.6360 ha         1 K13      0.149500
@<TRIPOS>BOND
     1    1    2 1
     2    1   40 1
     3    1   41 1
     4    2    3 ar
     5    2    7 ar
     6    3    4 ar
     7    3   42 1
     8    4    5 ar
     9    4   43 1
    10    5    6 ar
    11    5    8 1
    12    6    7 ar
    13    6   44 1
    14    7   45 1
    15    8    9 2
    16    8   10 2
    17    8   11 am
    18   11   12 1
    19   11   16 1
    20   12   13 1
    21   12   46 1
    22   12   47 1
    23   13   14 1
    24   13   15 1
    25   13   48 1
    26   14   49 1
    27   14   50 1
    28   14   51 1
    29   15   18 1
    30   15   52 1
    31   15   53 1
    32   16   17 1
    33   16   54 1
    34   16   55 1
    35   17   19 1
    36   17   20 1
    37   17   56 1
    38   18   57 1
    39   18   58 1
    40   18   59 1
    41   19   60 1
    42   20   21 1
    43   20   33 1
    44   20   61 1
    45   21   22 am
    46   21   62 1
    47   22   23 2
    48   22   24 1
    49   24   25 1
    50   25   26 1
    51   25   32 1
    52   25   63 1
    53   26   27 1
    54   26   64 1
    55   26   65 1
    56   27   28 1
    57   28   29 1
    58   28   32 1
    59   28   66 1
    60   29   30 1
    61   30   31 1
    62   30   67 1
    63   30   68 1
    64   31   32 1
    65   31   69 1
    66   31   70 1
    67   32   71 1
    68   33   39 1
    69   33   72 1
    70   33   73 1
    71   34   35 ar
    72   34   39 ar
    73   34   74 1
    74   35   36 ar
    75   35   75 1
    76   36   37 ar
    77   36   76 1
    78   37   38 ar
    79   37   77 1
    80   38   39 ar
    81   38   78 1
