@<TRIPOS>MOLECULE
    A78
  115   118     0     0     0
SMALL
USER_CHARGES


@<TRIPOS>ATOM
      1 C1          3.4440    3.3887   10.7035 zw         1 A78      0.766100
      2 O2          3.2004    4.2657   11.5137 z         1 A78     -0.669100
      3 N3          4.0410    3.6349    9.4679 z         1 A78     -0.445800
      4 C4          4.2905    2.5750    8.4667 c3         1 A78      0.072300
      5 C5          4.5571    4.9758    9.1200 za         1 A78      0.046700
      6 C6          6.0491    5.1114    9.4017 zo         1 A78      0.372600
      7 C7          6.9953    4.9899    8.3657 zp         1 A78     -0.230300
      8 N8          6.4049    5.3397   10.6848 nb         1 A78     -0.670000
      9 C9          8.3595    5.1108    8.6734 ca         1 A78     -0.092000
     10 C10         7.7158    5.4553   10.9775 ca         1 A78      0.394200
     11 C11         8.7265    5.3486   10.0067 ca         1 A78     -0.243300
     12 N22         3.1777    2.0550   10.9450 z|         1 A78     -0.557900
     13 C23         2.6353    1.5314   12.2140 zb         1 A78      0.044700
     14 C24         3.6764    0.5489   12.7936 zx         1 A78      0.653100
     15 O25         3.4215   -0.6062   13.0869 z         1 A78     -0.634100
     16 C26         1.1960    0.9387   12.0510 zh         1 A78     -0.074700
     17 C27         0.5342    0.6636   13.4290 zi         1 A78     -0.094600
     18 C28         0.2755    1.8727   11.2187 zi         1 A78     -0.094600
     19 N38         4.9543    1.0811   12.8958 z}         1 A78     -0.554900
     20 C39         6.1361    0.3488   13.3835 zg         1 A78      0.096700
     21 C40         7.3898    0.7378   12.5551 zl         1 A78     -0.045100
     22 C41         7.2304    0.5560   11.0432 zq         1 A78     -0.084300
     23 C42         7.6827    1.5626   10.1677 zr         1 A78     -0.123000
     24 C43         7.5817    1.3961    8.7772 ca         1 A78     -0.133000
     25 C44         7.0208    0.2239    8.2489 ca         1 A78     -0.134000
     26 C45         6.5634   -0.7826    9.1129 ca         1 A78     -0.133000
     27 C46         6.6724   -0.6210   10.5037 zr         1 A78     -0.123000
     28 C47         6.3818    0.6114   14.8979 zj         1 A78     -0.123400
     29 O48         5.4918    0.6100   17.1615 z         1 A78     -0.608800
     30 C49         5.2282    0.1487   15.8325 zk         1 A78      0.125100
     31 N50         6.1967   -2.0921   16.4025 z~         1 A78     -0.538900
     32 C51         5.0294   -1.3972   15.8311 zm         1 A78      0.103700
     33 C52         3.7256   -1.8055   16.5704 zn         1 A78     -0.041100
     34 C53         3.4808   -3.3106   16.5299 zs         1 A78     -0.081300
     35 C54         3.7613   -4.1088   17.6555 zt         1 A78     -0.123500
     36 C55         3.5778   -5.4991   17.6009 ca         1 A78     -0.132500
     37 C56         3.1116   -6.1003   16.4218 ca         1 A78     -0.136000
     38 C57         2.8290   -5.3098   15.2970 ca         1 A78     -0.132500
     39 C58         3.0128   -3.9187   15.3507 zt         1 A78     -0.123500
     40 N81         7.1331   -5.5620   16.8647 z         1 A78     -0.539900
     41 C82         7.4436   -4.1278   17.0194 zc         1 A78      0.034700
     42 C83         6.6091   -3.3476   15.9854 zy         1 A78      0.658100
     43 O84         6.2884   -3.8198   14.9065 z         1 A78     -0.633100
     44 C85         8.9768   -3.8384   16.8891 ze         1 A78     -0.086700
     45 C86         9.3055   -2.3257   16.9980 zf         1 A78     -0.095100
     46 C87         9.8090   -4.6280   17.9340 zf         1 A78     -0.095100
     47 C97         6.9688   -6.4414   17.9188 zz         1 A78      0.754100
     48 O98         7.1154   -6.1080   19.0818 z         1 A78     -0.657100
     49 N99         6.6109   -7.7343   17.5371 z         1 A78     -0.445800
     50 C2          6.4191   -8.1324   16.1243 c3         1 A78      0.059300
     51 C3          6.3450   -8.7797   18.5509 zd         1 A78      0.038700
     52 C8          4.9082   -8.7509   19.0589 zu         1 A78      0.359600
     53 C12         3.8467   -9.2058   18.2529 zv         1 A78     -0.221300
     54 N10         4.7145   -8.2603   20.3024 nb         1 A78     -0.665000
     55 C13         2.5363   -9.1367   18.7508 ca         1 A78     -0.099000
     56 C14         3.4548   -8.1953   20.7786 ca         1 A78      0.388200
     57 C15         2.3368   -8.6182   20.0392 ca         1 A78     -0.242300
     58 H1          4.8966    2.9618    7.6380 h1         1 A78      0.046700
     59 H2          3.3340    2.2109    8.0711 h1         1 A78      0.046700
     60 H3          4.8287    1.7423    8.9355 h1         1 A78      0.046700
     61 H4          4.0116    5.7408    9.6875 h1         1 A78      0.078700
     62 H5          4.3645    5.1697    8.0573 h1         1 A78      0.078700
     63 H6          6.6784    4.8020    7.3441 ha         1 A78      0.149000
     64 H7          9.1140    5.0199    7.8974 ha         1 A78      0.141000
     65 H8          7.9618    5.6384   12.0227 h4         1 A78      0.022100
     66 H9          9.7719    5.4476   10.2843 ha         1 A78      0.146000
     67 H10         3.4311    1.3908   10.2258 hn         1 A78      0.319500
     68 H11         2.5748    2.3600   12.9308 h1         1 A78      0.088700
     69 H12         1.2719   -0.0138   11.5103 hc         1 A78      0.079700
     70 H13        -0.4748    0.2520   13.2992 hc         1 A78      0.039533
     71 H14         0.4501    1.5885   14.0136 hc         1 A78      0.039533
     72 H15         1.1077   -0.0595   14.0205 hc         1 A78      0.039533
     73 H16         0.6274    1.9598   10.1829 hc         1 A78      0.039533
     74 H17         0.2403    2.8792   11.6550 hc         1 A78      0.039533
     75 H18        -0.7489    1.4807   11.1838 hc         1 A78      0.039533
     76 H19         5.0836    2.0359   12.5813 hn         1 A78      0.337500
     77 H20         5.9688   -0.7256   13.2422 h1         1 A78      0.110700
     78 H21         8.2419    0.1363   12.8968 hc         1 A78      0.053200
     79 H22         7.6469    1.7819   12.7765 hc         1 A78      0.053200
     80 H23         8.1217    2.4733   10.5643 ha         1 A78      0.145500
     81 H24         7.9389    2.1748    8.1101 ha         1 A78      0.128500
     82 H25         6.9415    0.0954    7.1732 ha         1 A78      0.125000
     83 H26         6.1321   -1.6927    8.7058 ha         1 A78      0.128500
     84 H27         6.3294   -1.4182   11.1566 ha         1 A78      0.145500
     85 H28         6.5403    1.6882   15.0414 hc         1 A78      0.050200
     86 H29         7.3131    0.1175   15.2036 hc         1 A78      0.050200
     87 H30         5.4912    1.5831   17.1398 z{         1 A78      0.401000
     88 H31         4.2983    0.6104   15.4776 h1         1 A78      0.044700
     89 H32         6.5314   -1.7605   17.2988 hn         1 A78      0.324500
     90 H33         4.9153   -1.7248   14.7921 h1         1 A78      0.117700
     91 H34         2.8746   -1.2858   16.1119 hc         1 A78      0.059200
     92 H35         3.7696   -1.4611   17.6115 hc         1 A78      0.059200
     93 H36         4.1367   -3.6545   18.5680 ha         1 A78      0.143500
     94 H37         3.8046   -6.1084   18.4705 ha         1 A78      0.128500
     95 H38         2.9727   -7.1759   16.3775 ha         1 A78      0.126000
     96 H39         2.4737   -5.7743   14.3819 ha         1 A78      0.128500
     97 H40         2.8058   -3.3141   14.4719 ha         1 A78      0.143500
     98 H41         6.9565   -5.9079   15.9308 hn         1 A78      0.314500
     99 H42         7.1074   -3.8015   18.0122 h1         1 A78      0.101700
    100 H43         9.2978   -4.1725   15.8936 hc         1 A78      0.072700
    101 H44        10.3903   -2.1603   17.0017 hc         1 A78      0.039867
    102 H45         8.8934   -1.8990   17.9214 hc         1 A78      0.039867
    103 H46         8.8968   -1.7691   16.1457 hc         1 A78      0.039867
    104 H47         9.7154   -5.7103   17.7810 hc         1 A78      0.039867
    105 H48         9.4803   -4.3945   18.9548 hc         1 A78      0.039867
    106 H49        10.8748   -4.3793   17.8545 hc         1 A78      0.039867
    107 H50         6.1440   -9.1921   16.0537 h1         1 A78      0.048367
    108 H51         7.3501   -7.9716   15.5658 h1         1 A78      0.048367
    109 H52         5.6185   -7.5289   15.6774 h1         1 A78      0.048367
    110 H53         7.0349   -8.6447   19.3945 h1         1 A78      0.081700
    111 H54         6.5564   -9.7681   18.1245 h1         1 A78      0.081700
    112 H55         4.0341   -9.5957   17.2572 ha         1 A78      0.170000
    113 H56         1.6956   -9.4727   18.1508 ha         1 A78      0.140000
    114 H57         3.3396   -7.7881   21.7823 h4         1 A78      0.020100
    115 H58         1.3376   -8.5456   20.4584 ha         1 A78      0.142000
@<TRIPOS>BOND
     1    1    2 2
     2    1    3 am
     3    1   12 am
     4    3    4 1
     5    3    5 1
     6    4   58 1
     7    4   59 1
     8    4   60 1
     9    5    6 1
    10    5   61 1
    11    5   62 1
    12    6    7 ar
    13    6    8 ar
    14    7    9 ar
    15    7   63 1
    16    8   10 ar
    17    9   11 ar
    18    9   64 1
    19   10   11 ar
    20   10   65 1
    21   11   66 1
    22   12   13 1
    23   12   67 1
    24   13   14 1
    25   13   16 1
    26   13   68 1
    27   14   15 2
    28   14   19 am
    29   16   17 1
    30   16   18 1
    31   16   69 1
    32   17   70 1
    33   17   71 1
    34   17   72 1
    35   18   73 1
    36   18   74 1
    37   18   75 1
    38   19   20 1
    39   19   76 1
    40   20   21 1
    41   20   28 1
    42   20   77 1
    43   21   22 1
    44   21   78 1
    45   21   79 1
    46   22   23 ar
    47   22   27 ar
    48   23   24 ar
    49   23   80 1
    50   24   25 ar
    51   24   81 1
    52   25   26 ar
    53   25   82 1
    54   26   27 ar
    55   26   83 1
    56   27   84 1
    57   28   30 1
    58   28   85 1
    59   28   86 1
    60   29   30 1
    61   29   87 1
    62   30   32 1
    63   30   88 1
    64   31   32 1
    65   31   42 am
    66   31   89 1
    67   32   33 1
    68   32   90 1
    69   33   34 1
    70   33   91 1
    71   33   92 1
    72   34   35 ar
    73   34   39 ar
    74   35   36 ar
    75   35   93 1
    76   36   37 ar
    77   36   94 1
    78   37   38 ar
    79   37   95 1
    80   38   39 ar
    81   38   96 1
    82   39   97 1
    83   40   41 1
    84   40   47 am
    85   40   98 1
    86   41   42 1
    87   41   44 1
    88   41   99 1
    89   42   43 2
    90   44   45 1
    91   44   46 1
    92   44  100 1
    93   45  101 1
    94   45  102 1
    95   45  103 1
    96   46  104 1
    97   46  105 1
    98   46  106 1
    99   47   48 2
   100   47   49 am
   101   49   50 1
   102   49   51 1
   103   50  107 1
   104   50  108 1
   105   50  109 1
   106   51   52 1
   107   51  110 1
   108   51  111 1
   109   52   53 ar
   110   52   54 ar
   111   53   55 ar
   112   53  112 1
   113   54   56 ar
   114   55   57 ar
   115   55  113 1
   116   56   57 ar
   117   56  114 1
   118   57  115 1
