@<TRIPOS>MOLECULE
    A79
  116   119     0     0     0
SMALL
USER_CHARGES


@<TRIPOS>ATOM
      1 C1          3.1165    3.4108   10.8428 zl         1 A79      0.754100
      2 O2          2.9449    4.5577   11.2169 zr         1 A79     -0.654100
      3 N3          3.6911    3.0854    9.6135 zq         1 A79     -0.444300
      4 C4          3.8683    1.6914    9.1493 c3         1 A79      0.067300
      5 C5          4.1568    4.1332    8.6771 za         1 A79      0.043700
      6 C6          5.6734    4.2827    8.6579 zh         1 A79      0.369100
      7 C7          6.4368    3.7720    7.5899 zi         1 A79     -0.223300
      8 N8          6.2319    4.9290    9.7043 nb         1 A79     -0.671000
      9 C9          7.8307    3.9358    7.6115 ca         1 A79     -0.094500
     10 C10         7.5713    5.0842    9.7229 ca         1 A79      0.391700
     11 C11         8.4091    4.6051    8.7010 ca         1 A79     -0.243300
     12 N21         2.7535    2.3164   11.6057 zo         1 A79     -0.548900
     13 C22         2.0764    2.3972   12.9167 zb         1 A79      0.033700
     14 C23         2.7270    1.3425   13.8400 zm         1 A79      0.650100
     15 O24         2.1119    0.4253   14.3582 zr         1 A79     -0.631600
     16 C25         0.5172    2.2708   12.8050 zd         1 A79     -0.077200
     17 C26        -0.0762    3.1420   11.6646 ze         1 A79     -0.095600
     18 C27        -0.1747    2.6463   14.1434 ze         1 A79     -0.095600
     19 N37         4.0998    1.4765   13.9671 zp         1 A79     -0.547400
     20 C38         4.9567    0.5226   14.6893 zc         1 A79      0.084700
     21 C39         6.4384    0.6999   14.2579 zg         1 A79     -0.039100
     22 C40         6.6338    0.4448   12.7675 zj         1 A79     -0.088300
     23 C41         6.5525   -0.8660   12.2606 zk         1 A79     -0.125500
     24 C42         6.7389   -1.1082   10.8902 ca         1 A79     -0.133250
     25 C43         7.0138   -0.0424   10.0197 ca         1 A79     -0.136000
     26 C44         7.0959    1.2659   10.5201 ca         1 A79     -0.133250
     27 C45         6.9013    1.5110   11.8882 zk         1 A79     -0.125500
     28 C46         4.7484    0.6219   16.2390 zf         1 A79      0.115100
     29 O47         5.1465    1.9175   16.7016 zs         1 A79     -0.609300
     30 O48         5.0765   -0.4105   18.4316 zs         1 A79     -0.609300
     31 C49         5.4977   -0.4754   17.0641 zf         1 A79      0.115100
     32 N50         6.1678   -2.8916   17.2434 zp         1 A79     -0.547400
     33 C51         5.3165   -1.9338   16.5194 zc         1 A79      0.084700
     34 C52         3.8393   -2.4149   16.5329 zg         1 A79     -0.039100
     35 C53         3.6738   -3.7698   15.8529 zj         1 A79     -0.088300
     36 C54         3.7867   -3.8733   14.4535 zk         1 A79     -0.125500
     37 C55         3.6303   -5.1165   13.8199 ca         1 A79     -0.133250
     38 C56         3.3537   -6.2627   14.5811 ca         1 A79     -0.136000
     39 C57         3.2387   -6.1647   15.9760 ca         1 A79     -0.133250
     40 C58         3.4036   -4.9243   16.6119 zk         1 A79     -0.125500
     41 N81         7.5400   -5.3810   17.3785 zo         1 A79     -0.548900
     42 C82         8.1896   -4.1449   17.8631 zb         1 A79      0.033700
     43 C83         7.5451   -2.9574   17.1131 zm         1 A79      0.650100
     44 O84         8.1702   -2.1832   16.4074 zr         1 A79     -0.631600
     45 C85         9.7533   -4.1954   17.7511 zd         1 A79     -0.077200
     46 C86        10.3495   -5.5357   18.2605 ze         1 A79     -0.095600
     47 C87        10.4122   -3.0211   18.5246 ze         1 A79     -0.095600
     48 C97         7.1709   -6.4400   18.1871 zl         1 A79      0.754100
     49 O98         7.3109   -6.4212   19.3974 zr         1 A79     -0.654100
     50 N99         6.6301   -7.5254   17.4967 zq         1 A79     -0.444300
     51 C2          6.4888   -7.5562   16.0241 c3         1 A79      0.067300
     52 C3          6.1679   -8.7395   18.2063 za         1 A79      0.043700
     53 C8          4.6501   -8.8235   18.3147 zh         1 A79      0.369100
     54 C12         3.9127   -9.6920   17.4862 zi         1 A79     -0.223300
     55 N10         4.0644   -8.0354   19.2423 nb         1 A79     -0.671000
     56 C13         2.5168   -9.7417   17.6249 ca         1 A79     -0.094500
     57 C14         2.7233   -8.0840   19.3723 ca         1 A79      0.391700
     58 C15         1.9104   -8.9201   18.5875 ca         1 A79     -0.243300
     59 H1          4.4589    1.6658    8.2250 h1         1 A79      0.047533
     60 H2          2.8863    1.2405    8.9584 h1         1 A79      0.047533
     61 H3          4.3916    1.1067    9.9162 h1         1 A79      0.047533
     62 H4          3.7078    5.0980    8.9451 h1         1 A79      0.078950
     63 H5          3.8016    3.8888    7.6680 h1         1 A79      0.078950
     64 H6          5.9582    3.2585    6.7611 ha         1 A79      0.153500
     65 H7          8.4476    3.5529    6.8037 ha         1 A79      0.141000
     66 H8          7.9837    5.6093   10.5836 h4         1 A79      0.021600
     67 H9          9.4841    4.7510    8.7541 ha         1 A79      0.145000
     68 H10         2.9537    1.3992   11.2303 hn         1 A79      0.312000
     69 H11         2.3083    3.3748   13.3588 h1         1 A79      0.101700
     70 H12         0.2718    1.2259   12.5737 hc         1 A79      0.073700
     71 H13        -1.1712    3.0723   11.6522 hc         1 A79      0.040617
     72 H14         0.2817    2.8111   10.6817 hc         1 A79      0.040617
     73 H15         0.1943    4.1976   11.7942 hc         1 A79      0.040617
     74 H16         0.1567    2.0028   14.9668 hc         1 A79      0.040617
     75 H17        -1.2638    2.5398   14.0609 hc         1 A79      0.040617
     76 H18         0.0443    3.6864   14.4173 hc         1 A79      0.040617
     77 H19         4.5440    2.2517   13.4897 hn         1 A79      0.333000
     78 H20         4.6391   -0.4768   14.3697 h1         1 A79      0.097700
     79 H21         7.0789    0.0085   14.8180 hc         1 A79      0.065450
     80 H22         6.7794    1.7099   14.5195 hc         1 A79      0.065450
     81 H23         6.3494   -1.6975   12.9298 ha         1 A79      0.146250
     82 H24         6.6761   -2.1218   10.5049 ha         1 A79      0.130500
     83 H25         7.1631   -0.2289    8.9602 ha         1 A79      0.126500
     84 H26         7.3078    2.0904    9.8481 ha         1 A79      0.130500
     85 H27         6.9621    2.5291   12.2630 ha         1 A79      0.146250
     86 H28         3.6755    0.4983   16.4316 h1         1 A79      0.055200
     87 H29         4.6727    2.0804   17.5363 zn         1 A79      0.418000
     88 H30         5.6559    0.2307   18.8797 zn         1 A79      0.418000
     89 H31         6.5687   -0.2419   17.0183 h1         1 A79      0.055200
     90 H32         5.7166   -3.5853   17.8277 hn         1 A79      0.333000
     91 H33         5.6572   -1.9490   15.4776 h1         1 A79      0.097700
     92 H34         3.2013   -1.6860   16.0195 hc         1 A79      0.065450
     93 H35         3.4770   -2.4609   17.5679 hc         1 A79      0.065450
     94 H36         3.9921   -2.9890   13.8566 ha         1 A79      0.146250
     95 H37         3.7181   -5.1897   12.7397 ha         1 A79      0.130500
     96 H38         3.2292   -7.2245   14.0921 ha         1 A79      0.126500
     97 H39         3.0245   -7.0497   16.5652 ha         1 A79      0.130500
     98 H40         3.3183   -4.8627   17.6934 ha         1 A79      0.146250
     99 H41         7.3685   -5.4707   16.3861 hn         1 A79      0.312000
    100 H42         7.9273   -4.0164   18.9213 h1         1 A79      0.101700
    101 H43        10.0258   -4.1032   16.6915 hc         1 A79      0.073700
    102 H44        11.4458   -5.5143   18.2177 hc         1 A79      0.040617
    103 H45        10.0165   -6.3805   17.6447 hc         1 A79      0.040617
    104 H46        10.0550   -5.7278   19.3001 hc         1 A79      0.040617
    105 H47        10.0734   -2.0473   18.1520 hc         1 A79      0.040617
    106 H48        11.5040   -3.0512   18.4186 hc         1 A79      0.040617
    107 H49        10.1742   -3.0753   19.5947 hc         1 A79      0.040617
    108 H50         5.9144   -8.4371   15.7107 h1         1 A79      0.047533
    109 H51         7.4829   -7.5941   15.5609 h1         1 A79      0.047533
    110 H52         5.9638   -6.6559   15.6814 h1         1 A79      0.047533
    111 H53         6.5985   -8.7672   19.2154 h1         1 A79      0.078950
    112 H54         6.5456   -9.6239   17.6778 h1         1 A79      0.078950
    113 H55         4.4129  -10.3151   16.7504 ha         1 A79      0.153500
    114 H56         1.9196  -10.4005   17.0012 ha         1 A79      0.141000
    115 H57         2.2885   -7.4326   20.1295 h4         1 A79      0.021600
    116 H58         0.8331   -8.9295   18.7244 ha         1 A79      0.145000
@<TRIPOS>BOND
     1    1    2 2
     2    1    3 am
     3    1   12 am
     4    3    4 1
     5    3    5 1
     6    4   59 1
     7    4   60 1
     8    4   61 1
     9    5    6 1
    10    5   62 1
    11    5   63 1
    12    6    7 ar
    13    6    8 ar
    14    7    9 ar
    15    7   64 1
    16    8   10 ar
    17    9   11 ar
    18    9   65 1
    19   10   11 ar
    20   10   66 1
    21   11   67 1
    22   12   13 1
    23   12   68 1
    24   13   14 1
    25   13   16 1
    26   13   69 1
    27   14   15 2
    28   14   19 am
    29   16   17 1
    30   16   18 1
    31   16   70 1
    32   17   71 1
    33   17   72 1
    34   17   73 1
    35   18   74 1
    36   18   75 1
    37   18   76 1
    38   19   20 1
    39   19   77 1
    40   20   21 1
    41   20   28 1
    42   20   78 1
    43   21   22 1
    44   21   79 1
    45   21   80 1
    46   22   23 ar
    47   22   27 ar
    48   23   24 ar
    49   23   81 1
    50   24   25 ar
    51   24   82 1
    52   25   26 ar
    53   25   83 1
    54   26   27 ar
    55   26   84 1
    56   27   85 1
    57   28   29 1
    58   28   31 1
    59   28   86 1
    60   29   87 1
    61   30   31 1
    62   30   88 1
    63   31   33 1
    64   31   89 1
    65   32   33 1
    66   32   43 am
    67   32   90 1
    68   33   34 1
    69   33   91 1
    70   34   35 1
    71   34   92 1
    72   34   93 1
    73   35   36 ar
    74   35   40 ar
    75   36   37 ar
    76   36   94 1
    77   37   38 ar
    78   37   95 1
    79   38   39 ar
    80   38   96 1
    81   39   40 ar
    82   39   97 1
    83   40   98 1
    84   41   42 1
    85   41   48 am
    86   41   99 1
    87   42   43 1
    88   42   45 1
    89   42  100 1
    90   43   44 2
    91   45   46 1
    92   45   47 1
    93   45  101 1
    94   46  102 1
    95   46  103 1
    96   46  104 1
    97   47  105 1
    98   47  106 1
    99   47  107 1
   100   48   49 2
   101   48   50 am
   102   50   51 1
   103   50   52 1
   104   51  108 1
   105   51  109 1
   106   51  110 1
   107   52   53 1
   108   52  111 1
   109   52  112 1
   110   53   54 ar
   111   53   55 ar
   112   54   56 ar
   113   54  113 1
   114   55   57 ar
   115   56   58 ar
   116   56  114 1
   117   57   58 ar
   118   57  115 1
   119   58  116 1
