@<TRIPOS>MOLECULE
    M4S
   21    21     0     0     0
SMALL
USER_CHARGES


@<TRIPOS>ATOM
      1 C1          2.6315   -5.5058    7.5671 zb         1 M4S      0.017500
      2 N1          2.5193   -5.0005    4.0442 zg         1 M4S     -1.026700
      3 O1          5.4972   -6.2125    9.7654 zi         1 M4S     -0.319900
      4 S1          1.8652   -6.2440    4.9865 zj         1 M4S      1.533200
      5 C2          3.4922   -5.5077    8.6767 zd         1 M4S     -0.211000
      6 O2          2.0821   -7.4868    4.2410 zh         1 M4S     -0.661800
      7 C3          4.6880   -6.2426    8.6474 ze         1 M4S      0.188100
      8 O3          0.5332   -5.7977    5.4033 zh         1 M4S     -0.661800
      9 C4          5.0247   -6.9799    7.4928 zd         1 M4S     -0.211000
     10 C5          2.9643   -6.2432    6.4162 zc         1 M4S     -0.429500
     11 C6          6.7255   -6.9565    9.8756 za         1 M4S      0.109700
     12 C7          4.1647   -6.9764    6.3820 zb         1 M4S      0.017500
     13 H1          1.7092   -4.9334    7.6060 ha         1 M4S      0.154500
     14 H2          2.7981   -4.2256    4.6429 zf         1 M4S      0.445800
     15 H3          1.8069   -4.6577    3.4021 zf         1 M4S      0.445800
     16 H4          3.2326   -4.9401    9.5656 ha         1 M4S      0.151500
     17 H5          5.9435   -7.5549    7.4430 ha         1 M4S      0.151500
     18 H6          7.1841   -6.7742   10.8557 h1         1 M4S      0.050700
     19 H7          7.4348   -6.6448    9.0985 h1         1 M4S      0.050700
     20 H8          6.5320   -8.0325    9.7780 h1         1 M4S      0.050700
     21 H9          4.4332   -7.5441    5.4956 ha         1 M4S      0.154500
@<TRIPOS>BOND
     1    1    5 ar
     2    1   10 ar
     3    1   13 1
     4    2    4 am
     5    2   14 1
     6    2   15 1
     7    3    7 1
     8    3   11 1
     9    4    6 2
    10    4    8 2
    11    4   10 1
    12    5    7 ar
    13    5   16 1
    14    7    9 ar
    15    9   12 ar
    16    9   17 1
    17   10   12 ar
    18   11   18 1
    19   11   19 1
    20   11   20 1
    21   12   21 1
